$ MSC.Nastran input file created on March     31, 2021 at 12:45:27 by
$ Patran 2020  (Student Edition)
$ Direct Text Input for Nastran System Cell Section
$ Direct Text Input for File Management Section
$ Direct Text Input for Executive Control
$ Normal Modes Analysis, Database
SOL 103
CEND
$ Direct Text Input for Global Case Control Data
TITLE = MSC.Nastran job created on 31-Mar-21 at 12:43:07
ECHO = NONE
$ Using Nastran default values for RESVEC
SUBCASE 1
   SUBTITLE=LoadCase_ModosPropios
   METHOD = 1
   SPC = 2
   VECTOR(SORT1,REAL)=ALL
   SPCFORCES(SORT1,REAL)=ALL
$ Direct Text Input for this Subcase
BEGIN BULK
$ Direct Text Input for Bulk Data
PARAM    POST    0
PARAM   PRTMAXIM YES
EIGRL    1                       10      0                       MASS
$ Elements and Element Properties for region : 1D_Steel_Lbeam
PBAR*    1               1               7.2499999-4     3.9827771-7
*        3.9827771-7     6.0416667-9
*        .0543966        -.0156034       -.0206034       .0543966
*        -.0206034       -.0206034       .0543966        -.0206034
*        .4827586        .4827586        -2.3760778-7
*
$ Pset: "1D_Steel_Lbeam" will be imported as: "pbar.1"
CBAR     100     1       100     101     0.      0.      1.
CBAR     101     1       101     102     0.      0.      1.
CBAR     102     1       102     103     0.      0.      1.
CBAR     103     1       103     104     0.      0.      1.
CBAR     104     1       104     105     0.      0.      1.
CBAR     105     1       105     106     0.      0.      1.
CBAR     106     1       106     107     0.      0.      1.
CBAR     107     1       107     108     0.      0.      1.
CBAR     108     1       108     109     0.      0.      1.
CBAR     109     1       109     110     0.      0.      1.
CBAR     110     1       110     111     0.      0.      1.
CBAR     111     1       111     112     0.      0.      1.
CBAR     112     1       112     113     0.      0.      1.
CBAR     113     1       113     114     0.      0.      1.
CBAR     114     1       114     115     0.      0.      1.
CBAR     115     1       115     116     0.      0.      1.
CBAR     116     1       116     117     0.      0.      1.
CBAR     117     1       117     118     0.      0.      1.
CBAR     118     1       118     119     0.      0.      1.
CBAR     119     1       119     120     0.      0.      1.
$ ... 110 like lines cut
$ Elements and Element Properties for region : 0D_Mass_50kg
CONM2    230     230             50.
$ Referenced Material Records
$ Material Record : Steel
$ Description of Material : Date: 31-Mar-21           Time: 03:10:48
MAT1     1       2.+11           .3      7900.
$ Nodes of the Entire Model
GRID     100             0.      0.      0.
GRID*    101                            .004999999888241 0.
*        0.
GRID*    102                            .009999999776483 0.
*        0.
GRID*    103                            .014999999664724 0.
*        0.
GRID*    104                            .019999999552965 0.
*        0.
GRID*    105                            .025000000372529 0.
*        0.
GRID*    106                            .029999999329448 0.
*        0.
GRID*    107                            .035000000149012 0.
*        0.
GRID*    108                             .03999999910593 0.
*        0.
GRID*    109                             .04500000551343 0.
*        0.
GRID*    110                            .050000004470348 0.
*        0.
GRID*    111                            .055000003427267 0.
*        0.
GRID*    112                            .060000002384186 0.
*        0.
GRID*    113                            .065000005066395 0.
*        0.
GRID*    114                            .070000007748604 0.
*        0.
GRID*    115                            .075000002980232 0.
*        0.
GRID*    116                            .080000005662441 0.
*        0.
GRID*    117                             .08500000834465 0.
*        0.
GRID*    118                            .090000011026859 0.
*        0.
GRID*    119                            .095000006258488 0.
*        0.
GRID*    120                            .100000008940697 0.
*        0.
$ ... 8 like lines cut
GRID     125             .125    0.      0.
GRID*    126                             .13000001013279 0.
*        0.
GRID*    127                            .135000005364418 0.
*        0.
GRID*    128                            .140000015497208 0.
*        0.
GRID*    129                            .145000010728836 0.
*        0.
GRID*    130                            .150000005960464 0.
*        0.
GRID*    131                            .155000016093254 0.
*        0.
GRID*    132                            .160000026226044 0.
*        0.
GRID*    133                            .165000036358833 0.
*        0.
GRID*    134                            .170000031590462 0.
*        0.
GRID*    135                            .174999997019768 0.
*        0.
GRID*    136                            .180000022053719 0.
*        0.
GRID*    137                            .185000017285347 0.
*        0.
GRID*    138                            .190000012516975 0.
*        0.
GRID*    139                            .195000037550926 0.
*        0.
GRID*    140                            .200000032782555 0.
*        0.
GRID*    141                            .205000028014183 0.
*        0.
GRID*    142                            .209999993443489 0.
*        0.
GRID*    143                             .21500001847744 0.
*        0.
GRID*    144                            .220000013709068 0.
*        0.
GRID*    145                            .225000008940697 0.
*        0.
$ ... 8 like lines cut
GRID     150             .25     0.      0.
GRID*    151                            .254999995231628 0.
*        0.
GRID*    152                            .260000020265579 0.
*        0.
GRID*    153                            .265000015497208 0.
*        0.
GRID*    154                            .270000010728836 0.
*        0.
GRID*    155                            .275000035762787 0.
*        0.
GRID*    156                            .280000030994415 0.
*        0.
GRID*    157                            .285000026226044 0.
*        0.
GRID*    158                            .290000021457672 0.
*        0.
GRID*    159                            .295000016689301 0.
*        0.
GRID*    160                            .300000011920929 0.
*        0.
GRID*    161                            .304999977350235 0.
*        0.
GRID*    162                            .309999972581863 0.
*        0.
GRID*    163                            .314999997615814 0.
*        0.
GRID*    164                            .319999992847443 0.
*        0.
GRID*    165                            .324999988079071 0.
*        0.
GRID*    166                            .330000013113022 0.
*        0.
GRID*    167                            .334999978542328 0.
*        0.
GRID*    168                            .340000003576279 0.
*        0.
GRID*    169                            .344999969005585 0.
*        0.
GRID*    170                            .349999964237213 0.
*        0.
$ ... 58 like lines cut
GRID     200             .5      0.      0.
GRID*    201                            .504999995231628 0.
*        0.
GRID*    202                            .509999990463257 0.
*        0.
GRID*    203                            .514999985694885 0.
*        0.
GRID*    204                            .520000040531158 0.
*        0.
GRID*    205                            .524999976158142 0.
*        0.
GRID*    206                            .529999971389771 0.
*        0.
GRID*    207                            .534999966621399 0.
*        0.
GRID*    208                            .539999961853027 0.
*        0.
GRID*    209                            .545000016689301 0.
*        0.
GRID*    210                            .550000011920929 0.
*        0.
GRID*    211                            .554999947547913 0.
*        0.
GRID*    212                            .560000002384186 0.
*        0.
GRID*    213                            .564999938011169 0.
*        0.
GRID*    214                            .569999992847443 0.
*        0.
GRID*    215                            .574999988079071 0.
*        0.
GRID*    216                            .580000042915344 0.
*        0.
GRID*    217                            .584999978542328 0.
*        0.
GRID*    218                            .589999973773956 0.
*        0.
GRID*    219                            .594999969005585 0.
*        0.
GRID*    220                            .599999964237213 0.
*        0.
$ ... 20 like lines cut
$ Loads for Load Case : LoadCase_ModosPropios
SPCADD   2       1
$ Displacement Constraints of Load Set : SPC_123456
SPC1     1       123456  100
$ Referenced Coordinate Frames
ENDDATA 1d25e7db
