$ MSC.Nastran input file created on March     30, 2021 at 17:41:58 by
$ Patran 2020  (Student Edition)
$ Direct Text Input for Nastran System Cell Section
$ Direct Text Input for File Management Section
$ Direct Text Input for Executive Control
$ Buckling Analysis, Database
SOL 105
CEND
$ Direct Text Input for Global Case Control Data
TITLE = MSC.Nastran job created on 30-Mar-21 at 17:06:47
ECHO = NONE
SUBCASE 1
   SUBTITLE=LoadCase_buckling
   SPC = 2
   LOAD = 2
   SPCFORCES(SORT1,REAL)=ALL
SUBCASE 2
   SUBTITLE=LoadCase_buckling
   SPC = 2
   METHOD = 1
   VECTOR(PLOT,SORT1,REAL)=ALL
   SPCFORCES(SORT1,REAL)=ALL
   STATSUB = 1
$ Direct Text Input for this Subcase
BEGIN BULK
$ Direct Text Input for Bulk Data
PARAM    POST    0
PARAM   PRTMAXIM YES
EIGRL    1                       1       0
$ Elements and Element Properties for region : 2D_shell_1mm
PSHELL   1       1       .001    1               1
$ Pset: "2D_shell_1mm" will be imported as: "pshell.1"
CQUAD4   100     1       100     101     122     121
CQUAD4   101     1       101     102     123     122
CQUAD4   102     1       102     103     124     123
CQUAD4   103     1       103     104     125     124
CQUAD4   104     1       104     105     126     125
CQUAD4   105     1       105     106     127     126
CQUAD4   106     1       106     107     128     127
CQUAD4   107     1       107     108     129     128
CQUAD4   108     1       108     109     130     129
CQUAD4   109     1       109     110     131     130
CQUAD4   110     1       110     111     132     131
CQUAD4   111     1       111     112     133     132
CQUAD4   112     1       112     113     134     133
CQUAD4   113     1       113     114     135     134
CQUAD4   114     1       114     115     136     135
CQUAD4   115     1       115     116     137     136
CQUAD4   116     1       116     117     138     137
CQUAD4   117     1       117     118     139     138
CQUAD4   118     1       118     119     140     139
CQUAD4   119     1       119     100     121     140
$ ... 1580 like lines cut
$ Referenced Material Records
$ Material Record : Al7075
$ Description of Material : Date: 30-Mar-21           Time: 16:47:38
MAT1*    1               7.0000001+10                    .33
*        2700.
$ Multipoint Constraints of the Entire Model
RBE2     11      1       123456  100     101     102     103     104
         105     106     107     108     109     110     111     112
         113     114     115     116     117     118     119
RBE2     12      2       123456  1780    1781    1782    1783    1784
         1785    1786    1787    1788    1789    1790    1791    1792
         1793    1794    1795    1796    1797    1798    1799
$ Nodes of the Entire Model
GRID     1               0.      0.      0.      1
GRID     2               0.      0.      1.      1
GRID*    100                            .050000000745058 0.
*        0.              1
GRID*    101                            .047552965581417.015450425446033
*        0.              1
GRID*    102                            .040450796484947.029389336705208
*        0.              1
GRID*    103                             .02938861399889.040451321750879
*        0.              1
GRID*    104                            .015450013801455.047553099691868
*        0.              1
GRID*    105                             -7.9134132136-8.050000000745058
*        0.              1
GRID*    106                             -.0154511295259.047552734613419
*        0.              1
GRID*    107                             -.0293901078403.040450237691402
*        0.              1
GRID*    108                             -.0404514670372.029388412833214
*        0.              1
GRID*    109                            -.04755298048258.015450373291969
*        0.              1
GRID*    110                            -.050000000745062.137864640872-8
*        0.              1
GRID*    111                            -.04755264520645-.01545140706003
*        0.              1
GRID*    112                            -.04045018553734-.02939017675817
*        0.              1
GRID*    113                            -.02938836440444 -.0404515042901
*        0.              1
GRID*    114                            -.01545061729848-.04755290225148
*        0.              1
GRID*    115                            4.199782495107-7-.05000000074506
*        0.              1
GRID*    116                            .015451903454959-.04755248501897
*        0.              1
GRID*    117                             .0293904915452 -.04044995829463
*        0.              1
GRID*    118                            .040451567620039-.02938827686012
*        0.              1
GRID*    119                            .047553040087223-.01545019168407
*        0.              1
$ ... 3200 like lines cut
$ Loads for Load Case : LoadCase_buckling
SPCADD   2       1       3
LOAD     2       1.      1.      1
$ Displacement Constraints of Load Set : SPC_1236
SPC1     1       1236    1
$ Displacement Constraints of Load Set : SPC_12
SPC1     3       12      2
$ Nodal Forces of Load Set : Force_1N
FORCE    1       2       1       1.      0.      0.      -1.
$ Referenced Coordinate Frames
CORD2R   1               0.      0.      0.      0.      0.      1.
         1.      0.      0.
ENDDATA 0b5e52e3
