$ Elements and Element Properties for region : 2D_Al7075_Bandeja_2mm
PSHELL   1       1       .002    1               1
$ Pset: "2D_Al7075_Bandeja_2mm" will be imported as: "pshell.1"
CQUAD4   1336    1       1263    1264    1301    1267
CQUAD4   1337    1       1264    1265    1302    1301
CQUAD4   1338    1       1265    1266    1303    1302
CQUAD4   1339    1       1266    1018    1019    1303
CQUAD4   1340    1       1267    1301    1304    1268
CQUAD4   1341    1       1301    1302    1305    1304
CQUAD4   1342    1       1302    1303    1306    1305
CQUAD4   1343    1       1303    1019    1020    1306
CQUAD4   1344    1       1268    1304    1307    1269
CQUAD4   1345    1       1304    1305    1308    1307
CQUAD4   1346    1       1305    1306    1309    1308
CQUAD4   1347    1       1306    1020    1021    1309
CQUAD4   1348    1       1269    1307    1001    1000
CQUAD4   1349    1       1307    1308    1002    1001
CQUAD4   1350    1       1308    1309    1003    1002
CQUAD4   1351    1       1309    1021    1004    1003
CQUAD4   1352    1       1018    1260    1310    1019
CQUAD4   1353    1       1260    1261    1311    1310
CQUAD4   1354    1       1261    1262    1312    1311
CQUAD4   1355    1       1262    1025    1026    1312
$ ... 2284 like lines cut
$ Elements and Element Properties for region : 1D_Al7075_Rig_in
PBARL    2       1               BAR
         .005    .013
$ Pset: "1D_Al7075_Rig_in" will be imported as: "pbarl.2"
CBAR     1000    2       1000    1001    0.      0.      1.
                         0.      0.      -.0075  0.      0.      -.0075
CBAR     1001    2       1001    1002    0.      0.      1.
                         0.      0.      -.0075  0.      0.      -.0075
CBAR     1002    2       1002    1003    0.      0.      1.
                         0.      0.      -.0075  0.      0.      -.0075
CBAR     1003    2       1003    1004    0.      0.      1.
                         0.      0.      -.0075  0.      0.      -.0075
CBAR     1004    2       1004    1005    0.      0.      1.
                         0.      0.      -.0075  0.      0.      -.0075
CBAR     1005    2       1005    1006    0.      0.      1.
                         0.      0.      -.0075  0.      0.      -.0075
CBAR     1006    2       1006    1007    0.      0.      1.
                         0.      0.      -.0075  0.      0.      -.0075
CBAR     1007    2       1007    1008    0.      0.      1.
                         0.      0.      -.0075  0.      0.      -.0075
CBAR     1008    2       1009    1010    0.      0.      1.
                         0.      0.      -.0075  0.      0.      -.0075
CBAR     1009    2       1010    1011    0.      0.      1.
                         0.      0.      -.0075  0.      0.      -.0075
CBAR     1010    2       1011    1012    0.      0.      1.
                         0.      0.      -.0075  0.      0.      -.0075
CBAR     1011    2       1012    1013    0.      0.      1.
                         0.      0.      -.0075  0.      0.      -.0075
CBAR     1012    2       1013    1014    0.      0.      1.
                         0.      0.      -.0075  0.      0.      -.0075
CBAR     1013    2       1014    1015    0.      0.      1.
                         0.      0.      -.0075  0.      0.      -.0075
CBAR     1014    2       1015    1016    0.      0.      1.
                         0.      0.      -.0075  0.      0.      -.0075
CBAR     1015    2       1016    1017    0.      0.      1.
                         0.      0.      -.0075  0.      0.      -.0075
CBAR     1016    2       1018    1019    0.      0.      1.
                         0.      0.      -.0075  0.      0.      -.0075
CBAR     1017    2       1019    1020    0.      0.      1.
                         0.      0.      -.0075  0.      0.      -.0075
CBAR     1018    2       1020    1021    0.      0.      1.
                         0.      0.      -.0075  0.      0.      -.0075
CBAR     1019    2       1021    1004    0.      0.      1.
                         0.      0.      -.0075  0.      0.      -.0075
$ ... 1880 like lines cut
$ Elements and Element Properties for region : 1D_Al7075_Rig_out
PBARL    3       1               BAR
         .0095   .013
$ Pset: "1D_Al7075_Rig_out" will be imported as: "pbarl.3"
CBAR     1240    3       1224    1225    0.      0.      1.
                         0.      0.      -.0075  0.      0.      -.0075
CBAR     1241    3       1225    1226    0.      0.      1.
                         0.      0.      -.0075  0.      0.      -.0075
CBAR     1242    3       1226    1227    0.      0.      1.
                         0.      0.      -.0075  0.      0.      -.0075
CBAR     1243    3       1227    1228    0.      0.      1.
                         0.      0.      -.0075  0.      0.      -.0075
CBAR     1244    3       1204    1229    0.      0.      1.
                         0.      0.      -.0075  0.      0.      -.0075
CBAR     1245    3       1229    1230    0.      0.      1.
                         0.      0.      -.0075  0.      0.      -.0075
CBAR     1246    3       1230    1231    0.      0.      1.
                         0.      0.      -.0075  0.      0.      -.0075
CBAR     1247    3       1231    1228    0.      0.      1.
                         0.      0.      -.0075  0.      0.      -.0075
CBAR     1248    3       1220    1232    0.      0.      1.
                         0.      0.      -.0075  0.      0.      -.0075
CBAR     1249    3       1232    1233    0.      0.      1.
                         0.      0.      -.0075  0.      0.      -.0075
CBAR     1250    3       1233    1234    0.      0.      1.
                         0.      0.      -.0075  0.      0.      -.0075
CBAR     1251    3       1234    1224    0.      0.      1.
                         0.      0.      -.0075  0.      0.      -.0075
CBAR     1252    3       1216    1235    0.      0.      1.
                         0.      0.      -.0075  0.      0.      -.0075
CBAR     1253    3       1235    1236    0.      0.      1.
                         0.      0.      -.0075  0.      0.      -.0075
CBAR     1254    3       1236    1237    0.      0.      1.
                         0.      0.      -.0075  0.      0.      -.0075
CBAR     1255    3       1237    1220    0.      0.      1.
                         0.      0.      -.0075  0.      0.      -.0075
CBAR     1256    3       1212    1238    0.      0.      1.
                         0.      0.      -.0075  0.      0.      -.0075
CBAR     1257    3       1238    1239    0.      0.      1.
                         0.      0.      -.0075  0.      0.      -.0075
CBAR     1258    3       1239    1240    0.      0.      1.
                         0.      0.      -.0075  0.      0.      -.0075
CBAR     1259    3       1240    1216    0.      0.      1.
                         0.      0.      -.0075  0.      0.      -.0075
$ ... 728 like lines cut
$ Elements and Element Properties for region : 0D_mass_10kg
CONM2    2000    2000            10.
CONM2    2913    2626            10.
CONM2    3826    3252            10.
$ Elements and Element Properties for region : 1D_Al7075_Lbar_xn_yn
PBAR*    4               1               2.8496-4        2.2845819-8
*        2.2845819-8     2.5684395-9
*        .0206117        -.0041883       -.0093883       .0206117
*        -.0093883       -.0093883       .0206117        -.0093883
*        .4525547        .4525547        -1.3131327-8
*
$ Pset: "1D_Al7075_Lbar_xn_yn" will be imported as: "pbar.4"
CBAR     10000   4       1263    10001   1.      0.      0.
CBAR     10001   4       10001   10002   1.      0.      0.
CBAR     10002   4       10002   10003   1.      0.      0.
CBAR     10003   4       10003   10004   1.      0.      0.
CBAR     10004   4       10004   2264    1.      0.      0.
CBAR     10005   4       2264    10007   1.      0.      0.
CBAR     10006   4       10007   10008   1.      0.      0.
CBAR     10007   4       10008   10009   1.      0.      0.
CBAR     10008   4       10009   10010   1.      0.      0.
CBAR     10009   4       10010   2890    1.      0.      0.
CBAR     10010   4       2890    10013   1.      0.      0.
CBAR     10011   4       10013   10014   1.      0.      0.
CBAR     10012   4       10014   10015   1.      0.      0.
CBAR     10013   4       10015   10016   1.      0.      0.
CBAR     10014   4       10016   3516    1.      0.      0.
$ Elements and Element Properties for region : 1D_Al7075_Lbar_xn_yp
PBAR*    5               1               2.8496-4        2.2845819-8
*        2.2845819-8     2.5684395-9
*        .0206117        -.0041883       -.0093883       .0206117
*        -.0093883       -.0093883       .0206117        -.0093883
*        .4525547        .4525547        -1.3131327-8
*
$ Pset: "1D_Al7075_Lbar_xn_yp" will be imported as: "pbar.5"
CBAR     10015   5       1282    10019   0.      -1.     0.
CBAR     10016   5       10019   10020   0.      -1.     0.
CBAR     10017   5       10020   10021   0.      -1.     0.
CBAR     10018   5       10021   10022   0.      -1.     0.
CBAR     10019   5       10022   2283    0.      -1.     0.
CBAR     10020   5       2283    10025   0.      -1.     0.
CBAR     10021   5       10025   10026   0.      -1.     0.
CBAR     10022   5       10026   10027   0.      -1.     0.
CBAR     10023   5       10027   10028   0.      -1.     0.
CBAR     10024   5       10028   2909    0.      -1.     0.
CBAR     10025   5       2909    10031   0.      -1.     0.
CBAR     10026   5       10031   10032   0.      -1.     0.
CBAR     10027   5       10032   10033   0.      -1.     0.
CBAR     10028   5       10033   10034   0.      -1.     0.
CBAR     10029   5       10034   3535    0.      -1.     0.
$ Elements and Element Properties for region : 1D_Al7075_Lbar_xp_yn
PBAR*    6               1               2.8496-4        2.2845819-8
*        2.2845819-8     2.5684395-9
*        .0206117        -.0041883       -.0093883       .0206117
*        -.0093883       -.0093883       .0206117        -.0093883
*        .4525547        .4525547        -1.3131327-8
*
$ Pset: "1D_Al7075_Lbar_xp_yn" will be imported as: "pbar.6"
CBAR     10030   6       1244    10037   0.      1.      0.
CBAR     10031   6       10037   10038   0.      1.      0.
CBAR     10032   6       10038   10039   0.      1.      0.
CBAR     10033   6       10039   10040   0.      1.      0.
CBAR     10034   6       10040   2245    0.      1.      0.
CBAR     10035   6       2245    10043   0.      1.      0.
CBAR     10036   6       10043   10044   0.      1.      0.
CBAR     10037   6       10044   10045   0.      1.      0.
CBAR     10038   6       10045   10046   0.      1.      0.
CBAR     10039   6       10046   2871    0.      1.      0.
CBAR     10040   6       2871    10049   0.      1.      0.
CBAR     10041   6       10049   10050   0.      1.      0.
CBAR     10042   6       10050   10051   0.      1.      0.
CBAR     10043   6       10051   10052   0.      1.      0.
CBAR     10044   6       10052   3497    0.      1.      0.
$ Elements and Element Properties for region : 1D_Al7075_Lbar_xp_yp
PBAR*    7               1               2.8496-4        2.2845819-8
*        2.2845819-8     2.5684395-9
*        .0206117        -.0041883       -.0093883       .0206117
*        -.0093883       -.0093883       .0206117        -.0093883
*        .4525547        .4525547        -1.3131327-8
*
$ Pset: "1D_Al7075_Lbar_xp_yp" will be imported as: "pbar.7"
CBAR     10045   7       1228    10055   -1.     0.      0.
CBAR     10046   7       10055   10056   -1.     0.      0.
CBAR     10047   7       10056   10057   -1.     0.      0.
CBAR     10048   7       10057   10058   -1.     0.      0.
CBAR     10049   7       10058   2229    -1.     0.      0.
CBAR     10050   7       2229    10061   -1.     0.      0.
CBAR     10051   7       10061   10062   -1.     0.      0.
CBAR     10052   7       10062   10063   -1.     0.      0.
CBAR     10053   7       10063   10064   -1.     0.      0.
CBAR     10054   7       10064   2855    -1.     0.      0.
CBAR     10055   7       2855    10067   -1.     0.      0.
CBAR     10056   7       10067   10068   -1.     0.      0.
CBAR     10057   7       10068   10069   -1.     0.      0.
CBAR     10058   7       10069   10070   -1.     0.      0.
CBAR     10059   7       10070   3481    -1.     0.      0.
$ Elements and Element Properties for region : 2D_Al7075_Panel_1p5mm
PSHELL   8       1       .0015   1               1               4.
$ Pset: "2D_Al7075_Panel_1p5mm" will be imported as: "pshell.8"
CQUAD4   11000   8       1282    1288    11026   10019
CQUAD4   11001   8       1288    1287    11027   11026
CQUAD4   11002   8       1287    1286    11028   11027
CQUAD4   11003   8       1286    1160    11029   11028
CQUAD4   11004   8       1160    1281    11030   11029
CQUAD4   11005   8       1281    1280    11031   11030
CQUAD4   11006   8       1280    1279    11032   11031
CQUAD4   11007   8       1279    1124    11033   11032
CQUAD4   11008   8       1124    1278    11034   11033
CQUAD4   11009   8       1278    1277    11035   11034
CQUAD4   11010   8       1277    1276    11036   11035
CQUAD4   11011   8       1276    1088    11037   11036
CQUAD4   11012   8       1088    1275    11038   11037
CQUAD4   11013   8       1275    1274    11039   11038
CQUAD4   11014   8       1274    1273    11040   11039
CQUAD4   11015   8       1273    1009    11041   11040
CQUAD4   11016   8       1009    1272    11042   11041
CQUAD4   11017   8       1272    1271    11043   11042
CQUAD4   11018   8       1271    1270    11044   11043
CQUAD4   11019   8       1270    1000    11045   11044
$ ... 1420 like lines cut
$ Elements and Element Properties for region : 1D_CBUSH_IF
PBUSH    9       K       1.+9    1.+9    1.+9    100.    1.+7    1.+7
$ Pset: "1D_CBUSH_IF" will be imported as: "pbush.9"
CBUSH    1       9       1       1008    0.      1.      0.
CBUSH    2       9       2       1013    0.      1.      0.
CBUSH    3       9       3       1035    0.      1.      0.
CBUSH    4       9       4       1051    0.      1.      0.
CBUSH    5       9       5       1073    0.      1.      0.
CBUSH    6       9       6       1091    0.      1.      0.
CBUSH    7       9       7       1116    0.      1.      0.
CBUSH    8       9       8       1145    0.      1.      0.
CBUSH    9       9       9       1153    0.      1.      0.
CBUSH    10      9       10      1174    0.      1.      0.
CBUSH    11      9       11      1193    0.      1.      0.
CBUSH    12      9       12      1213    0.      1.      0.
$ Referenced Material Records
$ Material Record : Al7075
$ Description of Material : Date: 06-Apr-21           Time: 12:37:39
MAT1*    1               7.0999998+10                    .33
*        2800.           2.2-5           20.
$ Multipoint Constraints of the Entire Model
$ ID conflict : the PATRAN MPC ID was 2001
RBE2*    12440           2000            123             1017
*        1058            1120            1138           2.200000017183-5
$ ID conflict : the PATRAN MPC ID was 2002
RBE2*    12441           2626            123             2018
*        2059            2121            2139           2.200000017183-5
$ ID conflict : the PATRAN MPC ID was 2003
RBE2*    12442           3252            123             2644
*        2685            2747            2765           2.200000017183-5
$ Nodes of the Entire Model
GRID*    1                              -.07199999690056-.14399999380112
*        -.02
GRID*    2                              -.14399999380112-.07199999690056
*        -.02
GRID*    3                               0.             -.16374999284744
*        -.02
GRID*    4                              .071999996900558-.14399999380112
*        -.02
GRID*    5                              .143999993801117-.07199999690056
*        -.02
GRID*    6                              -.16374999284744 0.
*        -.02
GRID*    7                              -.14399999380112.071999996900558
*        -.02
GRID*    8                              .143999993801117.071999996900558
*        -.02
GRID*    9                              -.07199999690056.143999993801117
*        -.02
GRID*    10                             .071999996900558.143999993801117
*        -.02
GRID*    11                              0.             .163750007748604
*        -.02
GRID*    12                             .163750007748604 0.
*        -.02
GRID*    1000                           -.22300000488758-.14399999380112
*        0.
GRID*    1001                           -.20325000584126-.14399999380112
*        0.
GRID*    1002                           -.18349999189377-.14399999380112
*        0.
GRID*    1003                           -.16374999284744-.14399999380112
*        0.
GRID*    1004                           -.14399999380112-.14399999380112
*        0.
GRID*    1005                           -.12600000202656-.14399999380112
*        0.
GRID*    1006                           -.10799999535084-.14399999380112
*        0.
GRID*    1007                            -.0899999961257-.14399999380112
*        0.
$ ... 174 like lines cut
GRID     1095            0.      0.      0.
GRID*    1096                           -.05399999767542 0.
*        0.
GRID*    1097                           -.03599999845028 0.
*        0.
GRID*    1098                           -.01799999922514 0.
*        0.
GRID*    1099                           .071999996900558-.05399999767542
*        0.
GRID*    1100                           .071999996900558-.03599999845028
*        0.
GRID*    1101                           .071999996900558-.01799999922514
*        0.
GRID*    1102                           .071999996900558 0.
*        0.
GRID*    1103                            .01799999922514 0.
*        0.
GRID*    1104                           .035999998450279 0.
*        0.
GRID*    1105                           .053999997675419 0.
*        0.
GRID*    1106                           .143999993801117-.05399999767542
*        0.
GRID*    1107                           .143999993801117-.03599999845028
*        0.
GRID*    1108                           .143999993801117-.01799999922514
*        0.
GRID*    1109                           .143999993801117 0.
*        0.
GRID*    1110                           .089999996125698 0.
*        0.
GRID*    1111                           .107999995350838 0.
*        0.
GRID*    1112                           .126000002026558 0.
*        0.
GRID*    1113                           -.14399999380112 .01799999922514
*        0.
GRID*    1114                           -.14399999380112.035999998450279
*        0.
GRID*    1115                           -.14399999380112.053999997675419
*        0.
$ ... 1210 like lines cut
GRID     2096            0.      0.      .2
GRID*    2097                           -.05399999767542 0.
*        .2
GRID*    2098                           -.03599999845028 0.
*        .2
GRID*    2099                           -.01799999922514 0.
*        .2
GRID*    2100                           .071999996900558-.05399999767542
*        .2
GRID*    2101                           .071999996900558-.03599999845028
*        .2
GRID*    2102                           .071999996900558-.01799999922514
*        .2
GRID*    2103                           .071999996900558 0.
*        .2
GRID*    2104                            .01799999922514 0.
*        .2
GRID*    2105                           .035999998450279 0.
*        .2
GRID*    2106                           .053999997675419 0.
*        .2
GRID*    2107                           .143999993801117-.05399999767542
*        .2
GRID*    2108                           .143999993801117-.03599999845028
*        .2
GRID*    2109                           .143999993801117-.01799999922514
*        .2
GRID*    2110                           .143999993801117 0.
*        .2
GRID*    2111                           .089999996125698 0.
*        .2
GRID*    2112                           .107999995350838 0.
*        .2
GRID*    2113                           .126000002026558 0.
*        .2
GRID*    2114                           -.14399999380112 .01799999922514
*        .2
GRID*    2115                           -.14399999380112.035999998450279
*        .2
GRID*    2116                           -.14399999380112.053999997675419
*        .2
$ ... 1210 like lines cut
GRID     2722            0.      0.      .4
GRID*    2723                           -.05399999767542 0.
*        .4
GRID*    2724                           -.03599999845028 0.
*        .4
GRID*    2725                           -.01799999922514 0.
*        .4
GRID*    2726                           .071999996900558-.05399999767542
*        .4
GRID*    2727                           .071999996900558-.03599999845028
*        .4
GRID*    2728                           .071999996900558-.01799999922514
*        .4
GRID*    2729                           .071999996900558 0.
*        .4
GRID*    2730                            .01799999922514 0.
*        .4
GRID*    2731                           .035999998450279 0.
*        .4
GRID*    2732                           .053999997675419 0.
*        .4
GRID*    2733                           .143999993801117-.05399999767542
*        .4
GRID*    2734                           .143999993801117-.03599999845028
*        .4
GRID*    2735                           .143999993801117-.01799999922514
*        .4
GRID*    2736                           .143999993801117 0.
*        .4
GRID*    2737                           .089999996125698 0.
*        .4
GRID*    2738                           .107999995350838 0.
*        .4
GRID*    2739                           .126000002026558 0.
*        .4
GRID*    2740                           -.14399999380112 .01799999922514
*        .4
GRID*    2741                           -.14399999380112.035999998450279
*        .4
GRID*    2742                           -.14399999380112.053999997675419
*        .4
$ ... 1210 like lines cut
GRID     3348            0.      0.      .6
GRID*    3349                           -.05399999767542 0.
*        .6
GRID*    3350                           -.03599999845028 0.
*        .6
GRID*    3351                           -.01799999922514 0.
*        .6
GRID*    3352                           .071999996900558-.05399999767542
*        .6
GRID*    3353                           .071999996900558-.03599999845028
*        .6
GRID*    3354                           .071999996900558-.01799999922514
*        .6
GRID*    3355                           .071999996900558 0.
*        .6
GRID*    3356                            .01799999922514 0.
*        .6
GRID*    3357                           .035999998450279 0.
*        .6
GRID*    3358                           .053999997675419 0.
*        .6
GRID*    3359                           .143999993801117-.05399999767542
*        .6
GRID*    3360                           .143999993801117-.03599999845028
*        .6
GRID*    3361                           .143999993801117-.01799999922514
*        .6
GRID*    3362                           .143999993801117 0.
*        .6
GRID*    3363                           .089999996125698 0.
*        .6
GRID*    3364                           .107999995350838 0.
*        .6
GRID*    3365                           .126000002026558 0.
*        .6
GRID*    3366                           -.14399999380112 .01799999922514
*        .6
GRID*    3367                           -.14399999380112.035999998450279
*        .6
GRID*    3368                           -.14399999380112.053999997675419
*        .6
$ ... 3322 like lines cut
