$ MSC.Nastran input file created on May       04, 2021 at 13:33:15 by
$ Patran 2020  (Student Edition)
$ Direct Text Input for Nastran System Cell Section
$ Direct Text Input for File Management Section
$ Direct Text Input for Executive Control
$ Design Sensitivity and Optimization Analysis
SOL 200
TIME 600
CEND
$ Direct Text Input for Global Case Control Data
TITLE = MSC.Nastran job created on 04-May-21 at 13:21:36
ECHO = NONE
MAXLINES = 999999999
DESOBJ(MAX) = 1
DESGLB = 1
ANALYSIS = MODES
SUBCASE 1
$ Subcase name : Loadcase
   SUBTITLE=Loadcase
   METHOD = 1
   SPC = 2
   BC = 2
   VECTOR(SORT1,REAL)=ALL
$ Direct Text Input for this Subcase
BEGIN BULK
$ Direct Text Input for Bulk Data
PARAM    POST    0
PARAM   PRTMAXIM YES
EIGRL    1                       10      0                       MASS
$ Elements and Element Properties for region : 2D_Al6061_15mm
PSHELL   1       1      .015     1               1
$ Pset: "2D_Al6061_15mm" will be imported as: "pshell.1"
CQUAD4   1       1       1       2       43      42
CQUAD4   2       1       2       3       44      43
CQUAD4   3       1       3       4       45      44
CQUAD4   4       1       4       5       46      45
CQUAD4   5       1       5       6       47      46
CQUAD4   6       1       6       7       48      47
CQUAD4   7       1       7       8       49      48
CQUAD4   8       1       8       9       50      49
CQUAD4   9       1       9       10      51      50
CQUAD4   10      1       10      11      52      51
CQUAD4   11      1       11      12      53      52
CQUAD4   12      1       12      13      54      53
CQUAD4   13      1       13      14      55      54
CQUAD4   14      1       14      15      56      55
CQUAD4   15      1       15      16      57      56
CQUAD4   16      1       16      17      58      57
CQUAD4   17      1       17      18      59      58
CQUAD4   18      1       18      19      60      59
CQUAD4   19      1       19      20      61      60
CQUAD4   20      1       20      21      62      61
$ ... 1580 like lines cut
$ Elements and Element Properties for region : 0D_mass_10kg
CONM2    2000    2000           10.
$ Referenced Material Records
$ Material Record : Al6061
$ Description of Material : Date: 04-May-21           Time: 13:15:09
MAT1     1      6.89+10         .33     2700.
$ Multipoint Constraints of the Entire Model
$ ID conflict : the PATRAN MPC ID was 1
RBE2     2001    2000    123     505     521     1161    1177
$ Nodes of the Entire Model
GRID     1              .25     -.25     0.
GRID*    2                              .237500011920929-.25
*        0.
GRID*    3                              .224999994039536-.25
*        0.
GRID*    4                              .212500005960465-.25
*        0.
GRID*    5                              .199999988079071-.25
*        0.
GRID     6              .1875   -.25     0.
GRID*    7                              .175000011920929-.25
*        0.
GRID*    8                              .162499994039536-.25
*        0.
GRID*    9                              .150000005960465-.25
*        0.
GRID*    10                             .137499988079071-.25
*        0.
GRID     11             .125    -.25     0.
GRID*    12                             .112500011920929-.25
*        0.
GRID*    13                             .099999994039535-.25
*        0.
GRID*    14                             .087500005960464-.25
*        0.
GRID*    15                             .074999988079071-.25
*        0.
GRID     16             .0625   -.25     0.
GRID*    17                             .050000011920929-.25
*        0.
GRID*    18                             .037499994039535-.25
*        0.
GRID*    19                             .025000005960464-.25
*        0.
GRID*    20                             .012499988079071-.25
*        0.
GRID     21              0.     -.25     0.
GRID*    22                             -.01249998807907-.25
*        0.
GRID*    23                             -.02500000596046-.25
*        0.
GRID*    24                             -.03749999403953-.25
*        0.
GRID*    25                             -.05000001192092-.25
*        0.
GRID     26             -.0625  -.25     0.
GRID*    27                             -.07499998807907-.25
*        0.
GRID*    28                             -.08750000596046-.25
*        0.
GRID*    29                             -.09999999403953-.25
*        0.
GRID*    30                             -.11250001192092-.25
*        0.
GRID     31             -.125   -.25     0.
GRID*    32                             -.13749998807907-.25
*        0.
GRID*    33                             -.15000000596046-.25
*        0.
GRID*    34                             -.16249999403953-.25
*        0.
GRID*    35                             -.17500001192092-.25
*        0.
GRID     36             -.1875  -.25     0.
GRID*    37                             -.19999998807907-.25
*        0.
GRID*    38                             -.21250000596046-.25
*        0.
GRID*    39                             -.22499999403953-.25
*        0.
GRID*    40                             -.23750001192092-.25
*        0.
GRID     41             -.25    -.25     0.
GRID*    42                             .25             -.23749999701976
*        0.
GRID*    43                             .237500011920929-.23749999701976
*        0.
GRID*    44                             .224999994039536-.23749999701976
*        0.
GRID*    45                             .212500005960465-.23749999701976
*        0.
GRID*    46                             .199999988079071-.23749999701976
*        0.
GRID*    47                             .1875           -.23749999701976
*        0.
GRID*    48                             .175000011920929-.23749999701976
*        0.
GRID*    49                             .162499994039536-.23749999701976
*        0.
GRID*    50                             .150000005960465-.23750001192092
*        0.
GRID*    51                             .137499988079071-.23750001192092
*        0.
GRID*    52                             .125            -.23750001192092
*        0.
GRID*    53                             .112500011920929-.23750001192092
*        0.
GRID*    54                             .099999994039535-.23750001192092
*        0.
GRID*    55                             .087500005960464-.23750001192092
*        0.
GRID*    56                             .074999988079071-.23750001192092
*        0.
GRID*    57                             .0625           -.23750001192092
*        0.
GRID*    58                             .050000011920929-.23750001192092
*        0.
GRID*    59                             .037499994039535-.23750001192092
*        0.
GRID*    60                             .025000005960464-.23750001192092
*        0.
GRID*    61                             .012499988079071-.23750001192092
*        0.
$ ... 288 like lines cut
GRID     206            .25     -.1875   0.
GRID*    207                            .237500011920929-.1875
*        0.
GRID*    208                            .224999994039536-.1875
*        0.
GRID*    209                            .212500005960465-.1875
*        0.
GRID*    210                            .199999988079071-.1875
*        0.
GRID     211            .1875   -.1875   0.
GRID*    212                            .175000011920929-.1875
*        0.
GRID*    213                            .162499994039536-.1875
*        0.
GRID*    214                            .150000005960465-.1875
*        0.
GRID*    215                            .137499988079071-.1875
*        0.
GRID     216            .125    -.1875   0.
GRID*    217                            .112500011920929-.1875
*        0.
GRID*    218                            .099999994039535-.1875
*        0.
GRID*    219                            .087500005960464-.1875
*        0.
GRID*    220                            .074999988079071-.1875
*        0.
GRID     221            .0625   -.1875   0.
GRID*    222                            .050000011920929-.1875
*        0.
GRID*    223                            .037499994039535-.1875
*        0.
GRID*    224                            .025000005960464-.1875
*        0.
GRID*    225                            .012499988079071-.1875
*        0.
GRID     226             0.     -.1875   0.
GRID*    227                            -.01249998807907-.1875
*        0.
GRID*    228                            -.02500000596046-.1875
*        0.
GRID*    229                            -.03749999403953-.1875
*        0.
GRID*    230                            -.05000001192092-.1875
*        0.
GRID     231            -.0625  -.1875   0.
GRID*    232                            -.07499998807907-.1875
*        0.
GRID*    233                            -.08750000596046-.1875
*        0.
GRID*    234                            -.09999999403953-.1875
*        0.
GRID*    235                            -.11250001192092-.1875
*        0.
GRID     236            -.125   -.1875   0.
GRID*    237                            -.13749998807907-.1875
*        0.
GRID*    238                            -.15000000596046-.1875
*        0.
GRID*    239                            -.16249999403953-.1875
*        0.
GRID*    240                            -.17500001192092-.1875
*        0.
GRID     241            -.1875  -.1875   0.
GRID*    242                            -.19999998807907-.1875
*        0.
GRID*    243                            -.21250000596046-.1875
*        0.
GRID*    244                            -.22499999403953-.1875
*        0.
GRID*    245                            -.23750001192092-.1875
*        0.
GRID     246            -.25    -.1875   0.
GRID*    247                            .25             -.17499999701976
*        0.
GRID*    248                            .237500011920929-.17499999701976
*        0.
GRID*    249                            .224999994039536-.17499999701976
*        0.
GRID*    250                            .212500005960465-.17499999701976
*        0.
GRID*    251                            .199999988079071-.17499999701976
*        0.
GRID*    252                            .1875           -.17499999701976
*        0.
GRID*    253                            .175000011920929-.17499999701976
*        0.
GRID*    254                            .162499994039536-.17499999701976
*        0.
GRID*    255                            .150000005960465-.17499999701976
*        0.
GRID*    256                            .137499988079071-.17499999701976
*        0.
GRID*    257                            .125            -.17499999701976
*        0.
GRID*    258                            .112500011920929-.17500001192092
*        0.
GRID*    259                            .099999994039535-.17500001192092
*        0.
GRID*    260                            .087500005960464-.17500001192092
*        0.
GRID*    261                            .074999988079071-.17500001192092
*        0.
GRID*    262                            .0625           -.17500001192092
*        0.
GRID*    263                            .050000011920929-.17500001192092
*        0.
GRID*    264                            .037499994039535-.17500001192092
*        0.
GRID*    265                            .025000005960464-.17500001192092
*        0.
GRID*    266                            .012499988079071-.17500001192092
*        0.
$ ... 288 like lines cut
GRID     411            .25     -.125    0.
GRID*    412                            .237500011920929-.125
*        0.
GRID*    413                            .224999994039536-.125
*        0.
GRID*    414                            .212500005960465-.125
*        0.
GRID*    415                            .199999988079071-.125
*        0.
GRID     416            .1875   -.125    0.
GRID*    417                            .175000011920929-.125
*        0.
GRID*    418                            .162499994039536-.125
*        0.
GRID*    419                            .150000005960465-.125
*        0.
GRID*    420                            .137499988079071-.125
*        0.
GRID     421            .125    -.125    0.
GRID*    422                            .112500011920929-.125
*        0.
GRID*    423                            .099999994039535-.125
*        0.
GRID*    424                            .087500005960464-.125
*        0.
GRID*    425                            .074999988079071-.125
*        0.
GRID     426            .0625   -.125    0.
GRID*    427                            .050000011920929-.125
*        0.
GRID*    428                            .037499994039535-.125
*        0.
GRID*    429                            .025000005960464-.125
*        0.
GRID*    430                            .012499988079071-.125
*        0.
GRID     431             0.     -.125    0.
GRID*    432                            -.01249998807907-.125
*        0.
GRID*    433                            -.02500000596046-.125
*        0.
GRID*    434                            -.03749999403953-.125
*        0.
GRID*    435                            -.05000001192092-.125
*        0.
GRID     436            -.0625  -.125    0.
GRID*    437                            -.07499998807907-.125
*        0.
GRID*    438                            -.08750000596046-.125
*        0.
GRID*    439                            -.09999999403953-.125
*        0.
GRID*    440                            -.11250001192092-.125
*        0.
GRID     441            -.125   -.125    0.
GRID*    442                            -.13749998807907-.125
*        0.
GRID*    443                            -.15000000596046-.125
*        0.
GRID*    444                            -.16249999403953-.125
*        0.
GRID*    445                            -.17500001192092-.125
*        0.
GRID     446            -.1875  -.125    0.
GRID*    447                            -.19999998807907-.125
*        0.
GRID*    448                            -.21250000596046-.125
*        0.
GRID*    449                            -.22499999403953-.125
*        0.
GRID*    450                            -.23750001192092-.125
*        0.
GRID     451            -.25    -.125    0.
GRID*    452                            .25             -.11249999701976
*        0.
GRID*    453                            .237500011920929-.11249999701976
*        0.
GRID*    454                            .224999994039536-.11249999701976
*        0.
GRID*    455                            .212500005960465-.11249999701976
*        0.
GRID*    456                            .199999988079071-.11249999701976
*        0.
GRID*    457                            .1875           -.11249999701976
*        0.
GRID*    458                            .175000011920929-.11249999701976
*        0.
GRID*    459                            .162499994039536-.11249999701976
*        0.
GRID*    460                            .150000005960465-.11249999701976
*        0.
GRID*    461                            .137500002980232-.11249999701976
*        0.
GRID*    462                            .125            -.11249999701976
*        0.
GRID*    463                            .112500011920929-.11249999701976
*        0.
GRID*    464                            .099999994039535-.11249999701976
*        0.
GRID*    465                            .087500005960464-.11249999701976
*        0.
GRID*    466                            .074999988079071-.11249999701976
*        0.
GRID*    467                            .0625           -.11249999701976
*        0.
GRID*    468                            .050000011920929-.11249999701976
*        0.
GRID*    469                            .037499994039535-.11249999701976
*        0.
GRID*    470                            .025000005960464-.11249999701976
*        0.
GRID*    471                            .012499988079071-.11249999701976
*        0.
$ ... 288 like lines cut
GRID     616            .25     -.0625   0.
GRID*    617                            .237500011920929-.0625
*        0.
GRID*    618                            .224999994039536-.0625
*        0.
GRID*    619                            .212500005960465-.0625
*        0.
GRID*    620                            .199999988079071-.0625
*        0.
GRID     621            .1875   -.0625   0.
GRID*    622                            .175000011920929-.0625
*        0.
GRID*    623                            .162499994039536-.0625
*        0.
GRID*    624                            .150000005960465-.0625
*        0.
GRID*    625                            .137500002980232-.0625
*        0.
GRID     626            .125    -.0625   0.
GRID*    627                            .112500011920929-.0625
*        0.
GRID*    628                            .099999994039535-.0625
*        0.
GRID*    629                            .087500005960464-.0625
*        0.
GRID*    630                            .074999988079071-.0625
*        0.
GRID     631            .0625   -.0625   0.
GRID*    632                            .050000011920929-.0625
*        0.
GRID*    633                            .037499994039535-.0625
*        0.
GRID*    634                            .025000005960464-.0625
*        0.
GRID*    635                            .012499988079071-.0625
*        0.
GRID     636             0.     -.0625   0.
GRID*    637                            -.01249998807907-.0625
*        0.
GRID*    638                            -.02500000596046-.0625
*        0.
GRID*    639                            -.03749999403953-.0625
*        0.
GRID*    640                            -.05000001192092-.0625
*        0.
GRID     641            -.0625  -.0625   0.
GRID*    642                            -.07499998807907-.0625
*        0.
GRID*    643                            -.08750000596046-.0625
*        0.
GRID*    644                            -.09999999403953-.0625
*        0.
GRID*    645                            -.11250001192092-.0625
*        0.
GRID     646            -.125   -.0625   0.
GRID*    647                            -.13749998807907-.0625
*        0.
GRID*    648                            -.15000000596046-.0625
*        0.
GRID*    649                            -.16249999403953-.0625
*        0.
GRID*    650                            -.17500001192092-.0625
*        0.
GRID     651            -.1875  -.0625   0.
GRID*    652                            -.19999998807907-.0625
*        0.
GRID*    653                            -.21250000596046-.0625
*        0.
GRID*    654                            -.22499999403953-.0625
*        0.
GRID*    655                            -.23750001192092-.0625
*        0.
GRID     656            -.25    -.0625   0.
GRID*    657                            .25             -.04999999701976
*        0.
GRID*    658                            .237500011920929-.04999999701976
*        0.
GRID*    659                            .224999994039536-.04999999701976
*        0.
GRID*    660                            .212500005960465-.04999999701976
*        0.
GRID*    661                            .199999988079071-.04999999701976
*        0.
GRID*    662                            .1875           -.04999999701976
*        0.
GRID*    663                            .175000011920929-.04999999701976
*        0.
GRID*    664                            .162499994039536-.04999999701976
*        0.
GRID*    665                            .150000005960465-.04999999701976
*        0.
GRID*    666                            .137500002980232-.04999999701976
*        0.
GRID*    667                            .125            -.04999999701976
*        0.
GRID*    668                            .112500011920929-.04999999701976
*        0.
GRID*    669                            .099999994039535-.04999999701976
*        0.
GRID*    670                            .087500005960464-.04999999701976
*        0.
GRID*    671                            .074999988079071-.04999999701976
*        0.
GRID*    672                            .0625           -.04999999701976
*        0.
GRID*    673                            .050000011920929-.04999999701976
*        0.
GRID*    674                            .037499994039535-.04999999701976
*        0.
GRID*    675                            .025000005960464-.04999999701976
*        0.
GRID*    676                            .012499988079071-.04999999701976
*        0.
$ ... 288 like lines cut
GRID     821            .25      0.      0.
GRID*    822                            .237500011920929 0.
*        0.
GRID*    823                            .224999994039536 0.
*        0.
GRID*    824                            .212500005960465 0.
*        0.
GRID*    825                            .200000002980232 0.
*        0.
GRID     826            .1875    0.      0.
GRID*    827                            .175000011920929-1.3877787808-17
*        0.
GRID*    828                            .162499994039536-1.3877787808-17
*        0.
GRID*    829                            .150000005960465 0.
*        0.
GRID*    830                            .137500002980232 0.
*        0.
GRID     831            .125     0.      0.
GRID*    832                            .112500011920929 0.
*        0.
GRID*    833                            .099999994039535-1.3877787808-17
*        0.
GRID*    834                            .087500005960464 0.
*        0.
GRID*    835                            .074999988079071 0.
*        0.
GRID     836            .0625    0.      0.
GRID*    837                            .050000011920929 0.
*        0.
GRID*    838                            .037499994039535-1.3877787808-17
*        0.
GRID*    839                            .025000005960464 0.
*        0.
GRID*    840                            .012499988079071 0.
*        0.
GRID     841             0.      0.      0.
GRID*    842                            -.01249998807907 0.
*        0.
GRID*    843                            -.02500000596046 0.
*        0.
GRID*    844                            -.037499994039531.3877787808-17
*        0.
GRID*    845                            -.05000001192092 0.
*        0.
GRID     846            -.0625   0.      0.
GRID*    847                            -.07499998807907 0.
*        0.
GRID*    848                            -.08750000596046 0.
*        0.
GRID*    849                            -.099999994039531.3877787808-17
*        0.
GRID*    850                            -.11250001192092 0.
*        0.
GRID     851            -.125    0.      0.
GRID*    852                            -.13749998807907 0.
*        0.
GRID*    853                            -.15000000596046 0.
*        0.
GRID*    854                            -.162499994039531.3877787808-17
*        0.
GRID*    855                            -.175000011920921.3877787808-17
*        0.
GRID     856            -.1875   0.      0.
GRID*    857                            -.19999998807907-2.7755575616-17
*        0.
GRID*    858                            -.21250000596046 0.
*        0.
GRID*    859                            -.224999994039531.3877787808-17
*        0.
GRID*    860                            -.23750001192092 0.
*        0.
GRID     861            -.25     0.      0.
GRID*    862                            .25             .012499988079071
*        0.
GRID*    863                            .237500011920929.012499988079071
*        0.
GRID*    864                            .224999994039536.012499988079071
*        0.
GRID*    865                            .212500005960465.012499988079071
*        0.
GRID*    866                            .200000002980232.012499988079071
*        0.
GRID*    867                            .1875           .012499988079071
*        0.
GRID*    868                            .175000011920929.012499988079071
*        0.
GRID*    869                            .162500008940697.012499988079071
*        0.
GRID*    870                            .150000005960465.012499988079071
*        0.
GRID*    871                            .137500002980232.012499988079071
*        0.
GRID*    872                            .125            .012499988079071
*        0.
GRID*    873                            .112499997019768.012499988079071
*        0.
GRID*    874                            .099999994039535.012499988079071
*        0.
GRID*    875                            .087500005960464.012499988079071
*        0.
GRID*    876                            .075000002980232.012499988079071
*        0.
GRID*    877                            .0625           .012499988079071
*        0.
GRID*    878                            .049999997019767.012499988079071
*        0.
GRID*    879                            .037499994039535.012499988079071
*        0.
GRID*    880                            .025000005960464.012499988079071
*        0.
GRID*    881                            .012500002980232.012499988079071
*        0.
$ ... 288 like lines cut
GRID     1026           .25     .0625    0.
GRID*    1027                           .237500011920929.0625
*        0.
GRID*    1028                           .224999994039536.0625
*        0.
GRID*    1029                           .212500005960465.0625
*        0.
GRID*    1030                           .200000002980232.0625
*        0.
GRID     1031           .1875   .0625    0.
GRID*    1032                           .175000011920929.0625
*        0.
GRID*    1033                           .162500008940697.0625
*        0.
GRID*    1034                           .150000005960465.0625
*        0.
GRID*    1035                           .137500002980232.0625
*        0.
GRID     1036           .125    .0625    0.
GRID*    1037                           .112499997019768.0625
*        0.
GRID*    1038                           .099999994039535.0625
*        0.
GRID*    1039                           .087500005960464.0625
*        0.
GRID*    1040                           .075000002980232.0625
*        0.
GRID     1041           .0625   .0625    0.
GRID*    1042                           .049999997019767.0625
*        0.
GRID*    1043                           .037499994039535.0625
*        0.
GRID*    1044                           .025000005960464.0625
*        0.
GRID*    1045                           .012500002980232.0625
*        0.
GRID     1046            0.     .0625    0.
GRID*    1047                           -.01249998807907.0625
*        0.
GRID*    1048                           -.02500000596046.0625
*        0.
GRID*    1049                           -.03749999403953.0625
*        0.
GRID*    1050                           -.05000001192092.0625
*        0.
GRID     1051           -.0625  .0625    0.
GRID*    1052                           -.07499998807907.0625
*        0.
GRID*    1053                           -.08750000596046.0625
*        0.
GRID*    1054                           -.09999999403953.0625
*        0.
GRID*    1055                           -.11250001192092.0625
*        0.
GRID     1056           -.125   .0625    0.
GRID*    1057                           -.13749998807907.0625
*        0.
GRID*    1058                           -.15000000596046.0625
*        0.
GRID*    1059                           -.16249999403953.0625
*        0.
GRID*    1060                           -.17500001192092.0625
*        0.
GRID     1061           -.1875  .0625    0.
GRID*    1062                           -.19999998807907.0625
*        0.
GRID*    1063                           -.21250000596046.0625
*        0.
GRID*    1064                           -.22499999403953.0625
*        0.
GRID*    1065                           -.23750001192092.0625
*        0.
GRID     1066           -.25    .0625    0.
GRID*    1067                           .25             .074999988079071
*        0.
GRID*    1068                           .237500011920929.074999988079071
*        0.
GRID*    1069                           .224999994039536.074999988079071
*        0.
GRID*    1070                           .212500005960465.074999988079071
*        0.
GRID*    1071                           .200000002980232.074999988079071
*        0.
GRID*    1072                           .1875           .074999988079071
*        0.
GRID*    1073                           .175000011920929.074999988079071
*        0.
GRID*    1074                           .162500008940697.074999988079071
*        0.
GRID*    1075                           .150000005960465.074999988079071
*        0.
GRID*    1076                           .137500002980232.074999988079071
*        0.
GRID*    1077                           .125            .074999988079071
*        0.
GRID*    1078                           .112499997019768.074999988079071
*        0.
GRID*    1079                           .099999994039535.074999988079071
*        0.
GRID*    1080                           .087500005960464.074999988079071
*        0.
GRID*    1081                           .075000002980232.074999988079071
*        0.
GRID*    1082                           .0625           .074999988079071
*        0.
GRID*    1083                           .049999997019767.074999988079071
*        0.
GRID*    1084                           .037499994039535.074999988079071
*        0.
GRID*    1085                           .025000005960464.074999988079071
*        0.
GRID*    1086                           .012500002980232.074999988079071
*        0.
$ ... 288 like lines cut
GRID     1231           .25     .125     0.
GRID*    1232                           .237499997019768.125
*        0.
GRID*    1233                           .224999994039536.125
*        0.
GRID*    1234                           .212500005960465.125
*        0.
GRID*    1235                           .200000002980232.125
*        0.
GRID     1236           .1875   .125     0.
GRID*    1237                           .174999997019768.125
*        0.
GRID*    1238                           .162500008940697.125
*        0.
GRID*    1239                           .150000005960465.125
*        0.
GRID*    1240                           .137500002980232.125
*        0.
GRID     1241           .125    .125     0.
GRID*    1242                           .112499997019768.125
*        0.
GRID*    1243                           .099999994039535.125
*        0.
GRID*    1244                           .087500005960464.125
*        0.
GRID*    1245                           .075000002980232.125
*        0.
GRID     1246           .0625   .125     0.
GRID*    1247                           .049999997019767.125
*        0.
GRID*    1248                           .037499994039535.125
*        0.
GRID*    1249                           .025000005960464.125
*        0.
GRID*    1250                           .012500002980232.125
*        0.
GRID     1251            0.     .125     0.
GRID*    1252                           -.01249998807907.125
*        0.
GRID*    1253                           -.02500000596046.125
*        0.
GRID*    1254                           -.03749999403953.125
*        0.
GRID*    1255                           -.05000001192092.125
*        0.
GRID     1256           -.0625  .125     0.
GRID*    1257                           -.07499998807907.125
*        0.
GRID*    1258                           -.08750000596046.125
*        0.
GRID*    1259                           -.09999999403953.125
*        0.
GRID*    1260                           -.11250001192092.125
*        0.
GRID     1261           -.125   .125     0.
GRID*    1262                           -.13749998807907.125
*        0.
GRID*    1263                           -.15000000596046.125
*        0.
GRID*    1264                           -.16249999403953.125
*        0.
GRID*    1265                           -.17500001192092.125
*        0.
GRID     1266           -.1875  .125     0.
GRID*    1267                           -.19999998807907.125
*        0.
GRID*    1268                           -.21250000596046.125
*        0.
GRID*    1269                           -.22499999403953.125
*        0.
GRID*    1270                           -.23750001192092.125
*        0.
GRID     1271           -.25    .125     0.
GRID*    1272                           .25             .137499988079071
*        0.
GRID*    1273                           .237499997019768.137499988079071
*        0.
GRID*    1274                           .224999994039536.137499988079071
*        0.
GRID*    1275                           .212500005960465.137499988079071
*        0.
GRID*    1276                           .200000002980232.137499988079071
*        0.
GRID*    1277                           .1875           .137499988079071
*        0.
GRID*    1278                           .174999997019768.137499988079071
*        0.
GRID*    1279                           .162500008940697.137499988079071
*        0.
GRID*    1280                           .150000005960465.137499988079071
*        0.
GRID*    1281                           .137500002980232.137499988079071
*        0.
GRID*    1282                           .125            .137499988079071
*        0.
GRID*    1283                           .112499997019768.137499988079071
*        0.
GRID*    1284                           .099999994039535.137499988079071
*        0.
GRID*    1285                           .087500005960464.137499988079071
*        0.
GRID*    1286                           .075000002980232.137499988079071
*        0.
GRID*    1287                           .0625           .137499988079071
*        0.
GRID*    1288                           .049999997019767.137499988079071
*        0.
GRID*    1289                           .037499994039535.137499988079071
*        0.
GRID*    1290                           .025000005960464.137499988079071
*        0.
GRID*    1291                           .012500002980232.137499988079071
*        0.
$ ... 288 like lines cut
GRID     1436           .25     .1875    0.
GRID*    1437                           .237499997019768.1875
*        0.
GRID*    1438                           .224999994039536.1875
*        0.
GRID*    1439                           .212500005960465.1875
*        0.
GRID*    1440                           .200000002980232.1875
*        0.
GRID     1441           .1875   .1875    0.
GRID*    1442                           .174999997019768.1875
*        0.
GRID*    1443                           .162500008940697.1875
*        0.
GRID*    1444                           .150000005960465.1875
*        0.
GRID*    1445                           .137500002980232.1875
*        0.
GRID     1446           .125    .1875    0.
GRID*    1447                           .112499997019768.1875
*        0.
GRID*    1448                           .099999994039535.1875
*        0.
GRID*    1449                           .087500005960464.1875
*        0.
GRID*    1450                           .075000002980232.1875
*        0.
GRID     1451           .0625   .1875    0.
GRID*    1452                           .049999997019767.1875
*        0.
GRID*    1453                           .037499994039535.1875
*        0.
GRID*    1454                           .025000005960464.1875
*        0.
GRID*    1455                           .012500002980232.1875
*        0.
GRID     1456            0.     .1875    0.
GRID*    1457                           -.01249998807907.1875
*        0.
GRID*    1458                           -.02500000596046.1875
*        0.
GRID*    1459                           -.03749999403953.1875
*        0.
GRID*    1460                           -.05000001192092.1875
*        0.
GRID     1461           -.0625  .1875    0.
GRID*    1462                           -.07499998807907.1875
*        0.
GRID*    1463                           -.08750000596046.1875
*        0.
GRID*    1464                           -.09999999403953.1875
*        0.
GRID*    1465                           -.11250001192092.1875
*        0.
GRID     1466           -.125   .1875    0.
GRID*    1467                           -.13749998807907.1875
*        0.
GRID*    1468                           -.15000000596046.1875
*        0.
GRID*    1469                           -.16249999403953.1875
*        0.
GRID*    1470                           -.17500001192092.1875
*        0.
GRID     1471           -.1875  .1875    0.
GRID*    1472                           -.19999998807907.1875
*        0.
GRID*    1473                           -.21250000596046.1875
*        0.
GRID*    1474                           -.22499999403953.1875
*        0.
GRID*    1475                           -.23750001192092.1875
*        0.
GRID     1476           -.25    .1875    0.
GRID*    1477                           .25             .199999988079071
*        0.
GRID*    1478                           .237499997019768.199999988079071
*        0.
GRID*    1479                           .224999994039536.199999988079071
*        0.
GRID*    1480                           .212500005960465.199999988079071
*        0.
GRID*    1481                           .200000002980232.199999988079071
*        0.
GRID*    1482                           .1875           .199999988079071
*        0.
GRID*    1483                           .174999997019768.199999988079071
*        0.
GRID*    1484                           .162500008940697.199999988079071
*        0.
GRID*    1485                           .150000005960465.199999988079071
*        0.
GRID*    1486                           .137500002980232.199999988079071
*        0.
GRID*    1487                           .125            .199999988079071
*        0.
GRID*    1488                           .112499997019768.199999988079071
*        0.
GRID*    1489                           .099999994039535.199999988079071
*        0.
GRID*    1490                           .087500005960464.199999988079071
*        0.
GRID*    1491                           .075000002980232.199999988079071
*        0.
GRID*    1492                           .0625           .199999988079071
*        0.
GRID*    1493                           .049999997019767.199999988079071
*        0.
GRID*    1494                           .037499994039535.199999988079071
*        0.
GRID*    1495                           .025000005960464.199999988079071
*        0.
GRID*    1496                           .012500002980232.199999988079071
*        0.
$ ... 288 like lines cut
GRID     1641           .25     .25      0.
GRID*    1642                           .237499997019768.25
*        0.
GRID*    1643                           .224999994039536.25
*        0.
GRID*    1644                           .212500005960465.25
*        0.
GRID*    1645                           .200000002980232.25
*        0.
GRID     1646           .1875   .25      0.
GRID*    1647                           .174999997019768.25
*        0.
GRID*    1648                           .162500008940697.25
*        0.
GRID*    1649                           .150000005960465.25
*        0.
GRID*    1650                           .137500002980232.25
*        0.
GRID     1651           .125    .25      0.
GRID*    1652                           .112499997019768.25
*        0.
GRID*    1653                           .099999994039535.25
*        0.
GRID*    1654                           .087500005960464.25
*        0.
GRID*    1655                           .075000002980232.25
*        0.
GRID     1656           .0625   .25      0.
GRID*    1657                           .049999997019767.25
*        0.
GRID*    1658                           .037499994039535.25
*        0.
GRID*    1659                           .025000005960464.25
*        0.
GRID*    1660                           .012500002980232.25
*        0.
GRID     1661            0.     .25      0.
GRID*    1662                           -.01249998807907.25
*        0.
GRID*    1663                           -.02500000596046.25
*        0.
GRID*    1664                           -.03749999403953.25
*        0.
GRID*    1665                           -.05000001192092.25
*        0.
GRID     1666           -.0625  .25      0.
GRID*    1667                           -.07499998807907.25
*        0.
GRID*    1668                           -.08750000596046.25
*        0.
GRID*    1669                           -.09999999403953.25
*        0.
GRID*    1670                           -.11250001192092.25
*        0.
GRID     1671           -.125   .25      0.
GRID*    1672                           -.13749998807907.25
*        0.
GRID*    1673                           -.15000000596046.25
*        0.
GRID*    1674                           -.16249999403953.25
*        0.
GRID*    1675                           -.17500001192092.25
*        0.
GRID     1676           -.1875  .25      0.
GRID*    1677                           -.19999998807907.25
*        0.
GRID*    1678                           -.21250000596046.25
*        0.
GRID*    1679                           -.22499999403953.25
*        0.
GRID*    1680                           -.23750001192092.25
*        0.
GRID     1681           -.25    .25      0.
GRID*    2000                            0.              0.
*       .079999998211860
$ Loads for Load Case : Loadcase
SPCADD   2       1
$ Displacement Constraints of Load Set : SPC_123
SPC1     1       123     1       THRU    42
SPC1     1       123     82      83      123     124     164     165
         205     206     246     247     287     288     328     329
         369     370     410     411     451     452     492     493
         533     534     574     575     615     616     656     657
         697     698     738     739     779     780     820     821
         861     862     902     903     943     944     984     985
         1025    1026    1066    1067    1107    1108    1148    1149
         1189    1190    1230    1231    1271    1272    1312    1313
         1353    1354    1394    1395    1435    1436    1476    1477
         1517    1518    1558    1559    1599    1600
SPC1     1       123     1640    THRU    1681
$ Design Variables for TOPOLOGY Optimization :
TOPVAR   1       PSHELL  PSHELL                                  1
$ Global Target Constraints : MASS FRACTION
DCONSTR  1       10001          0.400000
DRESP1   10001   FRM     FRMASS
$ Objective Responses : Maximize Eigenfrequency
DRESP1   101     FREQ    FREQ                    1
DRESP1   102     FREQ    FREQ                    2
DRESP1   103     FREQ    FREQ                    3
DRESP2   1       AVEFQ   AVG
         DRESP1  101     102     103
$ Referenced Coordinate Frames
ENDDATA cf990a9a
