$ MSC.Nastran input file created on April     02, 2021 at 19:20:25 by
$ Patran 2020  (Student Edition)
$ Direct Text Input for Nastran System Cell Section
$ Direct Text Input for File Management Section
$ Direct Text Input for Executive Control
$ Buckling Analysis, Database
SOL 105
CEND
$ Direct Text Input for Global Case Control Data
TITLE = RBE2elements_6dof
SUBTITLE = RBE2elements_6dof
ECHO = NONE
SUBCASE 1
   SUBTITLE=LoadCase_buckling
   SPC = 2
   LOAD = 2
   SPCFORCES(SORT1,REAL)=ALL
SUBCASE 2
   SUBTITLE=LoadCase_buckling
   SPC = 2
   METHOD = 1
   VECTOR(PLOT,SORT1,REAL)=ALL
   SPCFORCES(SORT1,REAL)=ALL
   STATSUB = 1
$ Direct Text Input for this Subcase
BEGIN BULK
$ Direct Text Input for Bulk Data
PARAM    POST    0
PARAM   PRTMAXIM YES
EIGRL    1                       1       0
$ Elements and Element Properties for region : 2D_shell_0.5mm
PSHELL*  5               1               5.0000002-4     1
*                        1
$ Pset: "2D_shell_0.5mm" will be imported as: "pshell.5"
CQUAD4   100     5       100     101     152     151
CQUAD4   101     5       101     102     153     152
CQUAD4   102     5       102     103     154     153
CQUAD4   103     5       103     104     155     154
CQUAD4   104     5       104     105     156     155
CQUAD4   105     5       105     106     157     156
CQUAD4   106     5       106     107     158     157
CQUAD4   107     5       107     108     159     158
CQUAD4   108     5       108     109     160     159
CQUAD4   109     5       109     110     161     160
CQUAD4   110     5       110     111     162     161
CQUAD4   111     5       111     112     163     162
CQUAD4   112     5       112     113     164     163
CQUAD4   113     5       113     114     165     164
CQUAD4   114     5       114     115     166     165
CQUAD4   115     5       115     116     167     166
CQUAD4   116     5       116     117     168     167
CQUAD4   117     5       117     118     169     168
CQUAD4   118     5       118     119     170     169
CQUAD4   119     5       119     120     171     170
$ ... 3480 like lines cut
$ Referenced Material Records
$ Material Record : Al7075
$ Description of Material : Date: 02-Apr-21           Time: 19:04:59
MAT1*    1               7.0999998+10                    .33
*        2800.
$ Multipoint Constraints of the Entire Model
RBE2     11      1       123     100     101     102     103     104
         105     106     107     108     109     110     111     112
         113     114     115     116     117     118     119     120
         121     122     123     124     125     126     127     128
         129     130     131     132     133     134     135     136
         137     138     139     140     141     142     143     144
         145     146     147     148     149
RBE2     12      2       123     3670    3671    3672    3673    3674
         3675    3676    3677    3678    3679    3680    3681    3682
         3683    3684    3685    3686    3687    3688    3689    3690
         3691    3692    3693    3694    3695    3696    3697    3698
         3699    3700    3701    3702    3703    3704    3705    3706
         3707    3708    3709    3710    3711    3712    3713    3714
         3715    3716    3717    3718    3719
$ Nodes of the Entire Model
GRID     1               0.      0.      0.
GRID     2               0.      0.      .5
GRID*    100                            .200000002980232 0.
*        0.
GRID*    101                            .198422700166702.025068553164601
*        0.
GRID*    102                            .193716034293175.049740292131901
*        0.
GRID*    103                            .185954615473747 .07362662255764
*        0.
GRID*    104                            .175260990858078.096351370215416
*        0.
GRID*    105                            .161803737282753 .11755658686161
*        0.
GRID*    106                            .145794793963432.136908277869225
*        0.
GRID*    107                            .127486199140549.154101490974426
*        0.
GRID*    108                            .107166163623333.168865084648132
*        0.
GRID*    109                            .085154585540295.180966019630432
*        0.
GRID*    110                            .061800450086594.190212264657021
*        0.
GRID*    111                            .037472855299711.196458101272583
*        0.
GRID*    112                            .012555174529552.199605539441109
*        0.
GRID*    113                            -.01256003417075.199605226516724
*        0.
GRID*    114                            -.03747717663646.196457281708717
*        0.
GRID*    115                            -.06180266290903.190211549401283
*        0.
GRID*    116                            -.08515515178442.180965751409531
*        0.
GRID*    117                            -.10716570913792.168865367770195
*        0.
GRID*    118                            -.12748697400093.154100850224495
*        0.
GRID*    119                            -.14579638838768 .13690659403801
*        0.
$ ... 7060 like lines cut
$ Loads for Load Case : LoadCase_buckling
SPCADD   2       1       3
LOAD     2       1.      1.      1
$ Displacement Constraints of Load Set : SPC_1236
SPC1     1       1236    1
$ Displacement Constraints of Load Set : SPC_12
SPC1     3       12      2
$ Nodal Forces of Load Set : Force_1N
FORCE    1       2       0       1.      0.      0.      -1.
$ Referenced Coordinate Frames
ENDDATA 295582ae
