$ MSC.Nastran input file created on March     30, 2021 at 18:45:22 by
$ Patran 2020  (Student Edition)
$ Direct Text Input for Nastran System Cell Section
$ Direct Text Input for File Management Section
$ Direct Text Input for Executive Control
$ Buckling Analysis, Database
SOL 105
CEND
$ Direct Text Input for Global Case Control Data
TITLE = MSC.Nastran job created on 30-Mar-21 at 18:27:16
ECHO = NONE
SUBCASE 1
   SUBTITLE=LoadCase_buckling
   SPC = 2
   LOAD = 2
   SPCFORCES(SORT1,REAL)=ALL
SUBCASE 2
   SUBTITLE=LoadCase_buckling
   SPC = 2
   METHOD = 1
   VECTOR(PLOT,SORT1,REAL)=ALL
   SPCFORCES(SORT1,REAL)=ALL
   STATSUB = 1
$ Direct Text Input for this Subcase
BEGIN BULK
$ Direct Text Input for Bulk Data
PARAM    POST    0
PARAM   PRTMAXIM YES
EIGRL    1                       1       0
$ Elements and Element Properties for region : 2D_shell_0.5mm
PSHELL*  5               1               5.0000002-4     1
*                        1
$ Pset: "2D_shell_0.5mm" will be imported as: "pshell.5"
CQUAD4   100     5       100     101     142     141
CQUAD4   101     5       101     102     143     142
CQUAD4   102     5       102     103     144     143
CQUAD4   103     5       103     104     145     144
CQUAD4   104     5       104     105     146     145
CQUAD4   105     5       105     106     147     146
CQUAD4   106     5       106     107     148     147
CQUAD4   107     5       107     108     149     148
CQUAD4   108     5       108     109     150     149
CQUAD4   109     5       109     110     151     150
CQUAD4   110     5       110     111     152     151
CQUAD4   111     5       111     112     153     152
CQUAD4   112     5       112     113     154     153
CQUAD4   113     5       113     114     155     154
CQUAD4   114     5       114     115     156     155
CQUAD4   115     5       115     116     157     156
CQUAD4   116     5       116     117     158     157
CQUAD4   117     5       117     118     159     158
CQUAD4   118     5       118     119     160     159
CQUAD4   119     5       119     120     161     160
$ ... 1180 like lines cut
$ Referenced Material Records
$ Material Record : Al7075
$ Description of Material : Date: 30-Mar-21           Time: 18:02:30
MAT1*    1               7.0999998+10                    .33
*        2800.
$ Multipoint Constraints of the Entire Model
RBE2     12      2       123456  100     101     102     103     104
         105     106     107     108     109     110     111     112
         113     114     115     116     117     118     119     120
         121     122     123     124     125     126     127     128
         129     130     131     132     133     134     135     136
         137     138     139
RBE2     13      3       123456  1330    1331    1332    1333    1334
         1335    1336    1337    1338    1339    1340    1341    1342
         1343    1344    1345    1346    1347    1348    1349    1350
         1351    1352    1353    1354    1355    1356    1357    1358
         1359    1360    1361    1362    1363    1364    1365    1366
         1367    1368    1369
$ Nodes of the Entire Model
GRID     2               0.      0.      0.
GRID     3               0.      0.      .5
GRID*    100                            .400000005960464 0.
*        0.
GRID*    101                            .395074993371964.062575928866863
*        0.
GRID*    102                            .380423814058304.123603120446205
*        0.
GRID*    103                            .356400191783905 .18160092830658
*        0.
GRID*    104                            .323607295751572 .2351134121418
*        0.
GRID*    105                            .282842755317688.282842695713043
*        0.
GRID*    106                            .235110819339752.323609203100204
*        0.
GRID*    107                            .181599035859108.356401175260544
*        0.
GRID*    108                            .123601220548153.380424410104752
*        0.
GRID*    109                            .062573559582233.395075380802155
*        0.
GRID*    110                            9.485423646538-8.400000005960464
*        0.
GRID*    111                            -.06257874518633.395074546337128
*        0.
GRID*    112                            -.12360447645187.380423367023468
*        0.
GRID*    113                            -.18160131573677.356400012969971
*        0.
GRID*    114                            -.23511517047882.323606014251709
*        0.
GRID*    115                            -.28284329175949.282842129468918
*        0.
GRID*    116                            -.32361033558846.235109254717827
*        0.
GRID*    117                            -.35640180110931.181597784161568
*        0.
GRID*    118                            -.38042464852333.123600542545319
*        0.
GRID*    119                            -.39507567882538.062571696937084
*        0.
$ ... 2440 like lines cut
$ Loads for Load Case : LoadCase_buckling
SPCADD   2       1       3
LOAD     2       1.      1.      1
$ Displacement Constraints of Load Set : SPC_1236
SPC1     1       1236    2
$ Displacement Constraints of Load Set : SPC_12
SPC1     3       12      3
$ Nodal Forces of Load Set : Force_1N
FORCE    1       3       0       1.      0.      0.      -1.
$ Referenced Coordinate Frames
ENDDATA 5b19ae23
