$ MSC.Nastran input file created on March     28, 2021 at 21:43:55 by
$ Patran 2020  (Student Edition)
$ Direct Text Input for Nastran System Cell Section
$ Direct Text Input for File Management Section
$ Direct Text Input for Executive Control
$ Normal Modes Analysis, Database
SOL 103
CEND
$ Direct Text Input for Global Case Control Data
TITLE = MSC.Nastran job created on 28-Mar-21 at 21:32:38
ECHO = NONE
$ Using Nastran default values for RESVEC
SUBCASE 1
   SUBTITLE=Modos Propios
   METHOD = 1
   SPC = 2
   VECTOR(SORT1,REAL)=ALL
$ Direct Text Input for this Subcase
BEGIN BULK
$ Direct Text Input for Bulk Data
MDLPRM   HDF5    0
PARAM   PRTMAXIM YES
EIGRL    1                       10      0                       MASS
$ Elements and Element Properties for region : 1D_Al7075_beam
PBARL    1       1               BAR
         .002    .015
$ Pset: "1D_Al7075_beam" will be imported as: "pbarl.1"
CBAR     1000    1       1000    1001    0.      0.      1.
                         0.      0.      -.008   0.      0.      -.008
CBAR     1001    1       1001    1002    0.      0.      1.
                         0.      0.      -.008   0.      0.      -.008
CBAR     1002    1       1002    1003    0.      0.      1.
                         0.      0.      -.008   0.      0.      -.008
CBAR     1003    1       1003    1004    0.      0.      1.
                         0.      0.      -.008   0.      0.      -.008
CBAR     1004    1       1004    1005    0.      0.      1.
                         0.      0.      -.008   0.      0.      -.008
CBAR     1005    1       1005    1006    0.      0.      1.
                         0.      0.      -.008   0.      0.      -.008
CBAR     1006    1       1006    1007    0.      0.      1.
                         0.      0.      -.008   0.      0.      -.008
CBAR     1007    1       1007    1008    0.      0.      1.
                         0.      0.      -.008   0.      0.      -.008
CBAR     1008    1       1008    1009    0.      0.      1.
                         0.      0.      -.008   0.      0.      -.008
CBAR     1009    1       1009    1010    0.      0.      1.
                         0.      0.      -.008   0.      0.      -.008
CBAR     1010    1       1010    1011    0.      0.      1.
                         0.      0.      -.008   0.      0.      -.008
CBAR     1011    1       1011    1012    0.      0.      1.
                         0.      0.      -.008   0.      0.      -.008
CBAR     1012    1       1013    1014    0.      0.      1.
                         0.      0.      -.008   0.      0.      -.008
CBAR     1013    1       1014    1015    0.      0.      1.
                         0.      0.      -.008   0.      0.      -.008
CBAR     1014    1       1015    1016    0.      0.      1.
                         0.      0.      -.008   0.      0.      -.008
CBAR     1015    1       1016    1017    0.      0.      1.
                         0.      0.      -.008   0.      0.      -.008
CBAR     1016    1       1017    1018    0.      0.      1.
                         0.      0.      -.008   0.      0.      -.008
CBAR     1017    1       1018    1019    0.      0.      1.
                         0.      0.      -.008   0.      0.      -.008
CBAR     1018    1       1019    1020    0.      0.      1.
                         0.      0.      -.008   0.      0.      -.008
CBAR     1019    1       1020    1021    0.      0.      1.
                         0.      0.      -.008   0.      0.      -.008
$ ... 100 like lines cut
$ Elements and Element Properties for region : 2D_Al7075_plate_1mm
PSHELL   2       1       .001    1               1
$ Pset: "2D_Al7075_plate_1mm" will be imported as: "pshell.2"
CQUAD4   2000    2       2012    2013    2025    2024
CQUAD4   2001    2       2013    2014    2026    2025
CQUAD4   2002    2       2014    2015    2027    2026
CQUAD4   2003    2       2015    2016    2028    2027
CQUAD4   2004    2       2016    2017    2029    2028
CQUAD4   2005    2       2017    2018    2030    2029
CQUAD4   2006    2       2018    2019    2031    2030
CQUAD4   2007    2       2019    2020    2032    2031
CQUAD4   2008    2       2020    2021    2033    2032
CQUAD4   2009    2       2021    2022    2034    2033
CQUAD4   2010    2       2022    2023    2035    2034
CQUAD4   2011    2       2023    2012    2024    2035
CQUAD4   2012    2       2024    2025    2001    2000
CQUAD4   2013    2       2025    2026    2002    2001
CQUAD4   2014    2       2026    2027    2003    2002
CQUAD4   2015    2       2027    2028    2004    2003
CQUAD4   2016    2       2028    2029    2005    2004
CQUAD4   2017    2       2029    2030    2006    2005
CQUAD4   2018    2       2030    2031    2007    2006
CQUAD4   2019    2       2031    2032    2008    2007
$ ... 387 like lines cut
CTRIA3   2408    2       1001    2089    1048
CTRIA3   2409    2       1048    1000    1001
$ Elements and Element Properties for region : 1D_CBUSH_IF
PBUSH    3       K       1.+9    1.+9    1.+9    100.    1.+7    1.+7
$ Pset: "1D_CBUSH_IF" will be imported as: "pbush.3"
CBUSH    11      3       1       11      1.      0.      0.
$ Elements and Element Properties for region : Mass_2kg
CONM2    12      2512            2.
$ Referenced Material Records
$ Material Record : Al7075
$ Description of Material : Date: 28-Mar-21           Time: 20:12:11
MAT1*    1               7.0999998+10                    .33
*        2800.
$ Multipoint Constraints of the Entire Model
RBE2     1       1       45      2072    2073    2074    2075    2076
         2077    2078    2079    2080    2081    2082    2083
RBE2     2       2       12345   2000    2001    2002    2003    2004
         2005    2006    2007    2008    2009    2010    2011
RBE2     3       3       12345   2108    2109    2110    2111    2112
         2113    2114    2115    2116    2117    2118    2119
RBE2     4       4       12345   2036    2037    2038    2039    2040
         2041    2042    2043    2044    2045    2046    2047
RBE2     5       2512    12345   2262    2276    2295    2327
$ Nodes of the Entire Model
GRID*    1                              -.20000000298023.075000002980232
*        0.
GRID*    2                              .200000002980232.075000002980232
*        0.
GRID*    3                              .200000002980232-.07500000298023
*        0.
GRID*    4                              -.20000000298023-.07500000298023
*        0.
GRID*    7                              -.20000000298023.075000002980232
*        -.008
GRID*    8                              .200000002980232.075000002980232
*        -.008
GRID*    9                              .200000002980232-.07500000298023
*        -.008
GRID*    10                             -.20000000298023-.07500000298023
*        -.008
GRID*    11                             -.20000000298023.075000002980232
*        -.008
GRID*    12                             .200000002980232.075000002980232
*        -.008
GRID*    13                             .200000002980232-.07500000298023
*        -.008
GRID*    14                             -.20000000298023-.07500000298023
*        -.008
GRID     1000            -.25    .125    0.
GRID*    1001                            -.25           .110673390328884
*        0.
GRID*    1002                            -.25            .09421644359827
*        0.
GRID*    1003                            -.25           .075312368571758
*        0.
GRID*    1004                            -.25           .053597286343575
*        0.
GRID*    1005                            -.25           .028653219342232
*        0.
GRID     1006            -.25    0.      0.
GRID*    1007                            -.25           -.02865321934223
*        0.
GRID*    1008                            -.25           -.05359730124474
*        0.
GRID*    1009                            -.25           -.07531237602234
*        0.
GRID*    1010                            -.25           -.09421643614769
*        0.
GRID*    1011                            -.25           -.11067339777946
*        0.
GRID     1012            -.25    -.125   0.
GRID     1013            .25     -.125   0.
GRID*    1014                            .25            -.11067339032888
*        0.
GRID*    1015                            .25            -.09421644359827
*        0.
GRID*    1016                            .25            -.07531236857176
*        0.
GRID*    1017                            .25            -.05359728634357
*        0.
GRID*    1018                            .25            -.02865321934223
*        0.
GRID     1019            .25     0.      0.
GRID*    1020                            .25            .028653219342232
*        0.
GRID*    1021                            .25            .053597301244736
*        0.
GRID*    1022                            .25            .075312376022339
*        0.
GRID*    1023                            .25             .09421643614769
*        0.
GRID*    1024                            .25            .110673397779465
*        0.
GRID     1025            .25     .125    0.
GRID*    1027                           .234732732176781 .125
*        0.
GRID*    1028                           .218472450971603 .125
*        0.
GRID*    1029                           .201154589653015 .125
*        0.
GRID*    1030                           .182710379362106 .125
*        0.
GRID*    1031                           .163066491484642 .125
*        0.
GRID*    1032                           .142144978046417 .125
*        0.
GRID*    1033                            .11986269056797 .125
*        0.
GRID*    1034                           .096131145954132 .125
*        0.
GRID*    1035                            .07085607945919 .125
*        0.
GRID*    1036                           .043937101960182 .125
*        0.
GRID*    1037                            .01526728272438 .125
*        0.
GRID*    1038                           -.01526725292206 .125
*        0.
GRID*    1039                           -.04393708705902 .125
*        0.
GRID*    1040                           -.07085609436035 .125
*        0.
GRID*    1041                           -.09613114595413 .125
*        0.
GRID*    1042                           -.11986267566681 .125
*        0.
GRID*    1043                           -.14214494824409 .125
*        0.
GRID*    1044                           -.16306647658348 .125
*        0.
GRID*    1045                           -.18271034955978 .125
*        0.
GRID*    1046                           -.20115458965302 .125
*        0.
$ ... 838 like lines cut
$ Loads for Load Case : Modos Propios
SPCADD   2       1
$ Displacement Constraints of Load Set : SPC_123456
SPC1     1       123456  11      12      13      14
$ Referenced Coordinate Frames
ENDDATA 16a49010
